Version 4
SHEET 1 10304 2148
WIRE 2224 -32 2224 -144
WIRE 2560 -32 2560 -144
WIRE 2848 -32 2848 -144
WIRE 3152 -32 3152 -144
WIRE 3456 -32 3456 -144
WIRE 3760 -32 3760 -144
WIRE 1552 -16 1536 -16
WIRE 1664 -16 1632 -16
WIRE 1792 96 1792 80
WIRE 1552 160 1520 160
WIRE 1760 160 1632 160
WIRE 2224 160 2224 96
WIRE 2224 160 1904 160
WIRE 2560 160 2560 96
WIRE 2560 160 2224 160
WIRE 2848 160 2848 96
WIRE 2848 160 2560 160
WIRE 3152 160 3152 96
WIRE 3152 160 2848 160
WIRE 3456 160 3456 96
WIRE 3456 160 3152 160
WIRE 3760 160 3760 96
WIRE 3760 160 3456 160
WIRE 1808 288 1808 272
WIRE 1552 352 1520 352
WIRE 1776 352 1632 352
WIRE 2032 352 1920 352
WIRE 2256 352 2256 96
WIRE 2256 352 2160 352
WIRE 2352 352 2256 352
WIRE 2592 352 2592 96
WIRE 2592 352 2480 352
WIRE 2656 352 2592 352
WIRE 2880 352 2880 96
WIRE 2880 352 2784 352
WIRE 2960 352 2880 352
WIRE 3184 352 3184 96
WIRE 3184 352 3088 352
WIRE 3264 352 3184 352
WIRE 3488 352 3488 96
WIRE 3488 352 3392 352
WIRE 3568 352 3488 352
WIRE 3792 352 3792 96
WIRE 3792 352 3696 352
WIRE 2032 384 1984 384
WIRE 2208 384 2160 384
WIRE 2352 384 2304 384
WIRE 2528 384 2480 384
WIRE 2656 384 2608 384
WIRE 2832 384 2784 384
WIRE 2960 384 2912 384
WIRE 3136 384 3088 384
WIRE 3264 384 3216 384
WIRE 3440 384 3392 384
WIRE 3568 384 3520 384
WIRE 3744 384 3696 384
WIRE 1984 448 1984 384
WIRE 2208 448 2208 384
WIRE 2208 448 1984 448
WIRE 2304 448 2304 384
WIRE 2528 448 2528 384
WIRE 2528 448 2304 448
WIRE 2608 448 2608 384
WIRE 2832 448 2832 384
WIRE 2832 448 2608 448
WIRE 2912 448 2912 384
WIRE 3136 448 3136 384
WIRE 3136 448 2912 448
WIRE 3216 448 3216 384
WIRE 3440 448 3440 384
WIRE 3440 448 3216 448
WIRE 3520 448 3520 384
WIRE 3744 448 3744 384
WIRE 3744 448 3520 448
FLAG 1664 -16 V+
FLAG 1520 352 0
FLAG 2096 320 V+
FLAG 2416 320 V+
FLAG 2416 416 0
FLAG 2720 320 V+
FLAG 2720 416 0
FLAG 3024 320 V+
FLAG 3024 416 0
FLAG 2224 -144 P0
FLAG 2560 -144 P1
FLAG 2848 -144 P2
FLAG 3328 320 V+
FLAG 3328 416 0
FLAG 3152 -144 P3
FLAG 3216 32 0
FLAG 2912 32 0
FLAG 2624 32 0
FLAG 2288 32 0
FLAG 2528 32 V+
FLAG 2816 32 V+
FLAG 2192 32 V+
FLAG 3120 32 V+
FLAG 3632 320 V+
FLAG 3632 416 0
FLAG 3456 -144 P4
FLAG 3520 32 0
FLAG 3424 32 V+
FLAG 3760 -144 P5
FLAG 3824 32 0
FLAG 3728 32 V+
FLAG 1536 -16 0
FLAG 1520 160 0
FLAG 2096 416 0
FLAG 1808 272 V+
FLAG 1888 288 0
FLAG 1792 80 V+
FLAG 1872 96 0
SYMBOL voltage 1648 -16 R90
WINDOW 123 0 0 Left 0
WINDOW 39 0 0 Left 0
WINDOW 0 49 -38 VRight 2
WINDOW 3 -18 12 VRight 2
SYMATTR InstName Power_Supply
SYMATTR Value 5
SYMBOL Misc\\signal 1648 352 R90
WINDOW 3 24 104 Invisible 2
WINDOW 123 0 0 Left 0
WINDOW 39 0 0 Left 0
WINDOW 0 51 -7 VRight 2
SYMATTR Value PULSE(0 1m 3m 1u 1u 50u 100u 4)
SYMATTR InstName Channel_2
SYMBOL d-flip-flop 2096 368 R0
WINDOW 0 42 -60 Bottom 2
SYMATTR InstName X1
SYMBOL d-flip-flop 2416 368 R0
WINDOW 0 42 -60 Bottom 2
SYMATTR InstName X2
SYMBOL d-flip-flop 2720 368 R0
WINDOW 0 42 -60 Bottom 2
SYMATTR InstName X3
SYMBOL d-flip-flop 3024 368 R0
WINDOW 0 42 -60 Bottom 2
SYMATTR InstName X4
SYMBOL d-flip-flop 2240 32 R270
WINDOW 0 42 -60 Bottom 2
SYMATTR InstName X5
SYMBOL d-flip-flop 2576 32 R270
WINDOW 0 42 -60 Bottom 2
SYMATTR InstName X6
SYMBOL d-flip-flop 2864 32 R270
WINDOW 0 42 -60 Bottom 2
SYMATTR InstName X7
SYMBOL d-flip-flop 3328 368 R0
WINDOW 0 42 -60 Bottom 2
SYMATTR InstName X8
SYMBOL d-flip-flop 3168 32 R270
WINDOW 0 42 -60 Bottom 2
SYMATTR InstName X9
SYMBOL Misc\\signal 1648 160 R90
WINDOW 3 24 104 Invisible 2
WINDOW 123 0 0 Left 0
WINDOW 39 0 0 Left 0
WINDOW 0 49 -8 VRight 2
SYMATTR Value PULSE(0 1m 10m 1u 1u 50u 100u 1)
SYMATTR InstName Channel_1
SYMBOL d-flip-flop 3632 368 R0
WINDOW 0 42 -60 Bottom 2
SYMATTR InstName X10
SYMBOL d-flip-flop 3472 32 R270
WINDOW 0 42 -60 Bottom 2
SYMATTR InstName X11
SYMBOL d-flip-flop 3776 32 R270
WINDOW 0 42 -60 Bottom 2
SYMATTR InstName X13
SYMBOL voltage-amplifier 1840 352 R0
SYMATTR InstName Amplifier2
SYMBOL voltage-amplifier 1824 160 R0
SYMATTR InstName Amplifier1
TEXT 1512 -88 Left 2 !.tran 0 20m 0 1m
