Version 4
SHEET 1 10304 2148
WIRE 2224 -64 2224 -176
WIRE 2560 -64 2560 -176
WIRE 2848 -64 2848 -176
WIRE 3152 -64 3152 -176
WIRE 3456 -64 3456 -176
WIRE 3760 -64 3760 -176
WIRE 1552 -48 1536 -48
WIRE 1664 -48 1632 -48
WIRE 2192 -16 2176 -16
WIRE 2528 -16 2512 -16
WIRE 2816 -16 2800 -16
WIRE 3120 -16 3104 -16
WIRE 3424 -16 3408 -16
WIRE 3728 -16 3712 -16
WIRE 2192 16 2176 16
WIRE 2528 16 2512 16
WIRE 2816 16 2800 16
WIRE 3120 16 3104 16
WIRE 3424 16 3408 16
WIRE 3728 16 3712 16
WIRE 1808 64 1808 48
WIRE 1888 64 1888 48
WIRE 1552 128 1520 128
WIRE 1776 128 1632 128
WIRE 2224 128 2224 64
WIRE 2224 128 1920 128
WIRE 2560 128 2560 64
WIRE 2560 128 2224 128
WIRE 2848 128 2848 64
WIRE 2848 128 2560 128
WIRE 3152 128 3152 64
WIRE 3152 128 2848 128
WIRE 3456 128 3456 64
WIRE 3456 128 3152 128
WIRE 3760 128 3760 64
WIRE 3760 128 3456 128
WIRE 1808 288 1808 272
WIRE 1888 288 1888 272
WIRE 2080 320 2080 304
WIRE 2112 320 2112 304
WIRE 2400 320 2400 304
WIRE 2432 320 2432 304
WIRE 2704 320 2704 304
WIRE 2736 320 2736 304
WIRE 3008 320 3008 304
WIRE 3040 320 3040 304
WIRE 3312 320 3312 304
WIRE 3344 320 3344 304
WIRE 3616 320 3616 304
WIRE 3648 320 3648 304
WIRE 1552 352 1520 352
WIRE 1776 352 1632 352
WIRE 2032 352 1920 352
WIRE 2256 352 2256 64
WIRE 2256 352 2160 352
WIRE 2352 352 2256 352
WIRE 2592 352 2592 64
WIRE 2592 352 2480 352
WIRE 2656 352 2592 352
WIRE 2880 352 2880 64
WIRE 2880 352 2784 352
WIRE 2960 352 2880 352
WIRE 3184 352 3184 64
WIRE 3184 352 3088 352
WIRE 3264 352 3184 352
WIRE 3488 352 3488 64
WIRE 3488 352 3392 352
WIRE 3568 352 3488 352
WIRE 3792 352 3792 64
WIRE 3792 352 3696 352
WIRE 2032 384 1984 384
WIRE 2208 384 2160 384
WIRE 2352 384 2304 384
WIRE 2528 384 2480 384
WIRE 2656 384 2608 384
WIRE 2832 384 2784 384
WIRE 2960 384 2912 384
WIRE 3136 384 3088 384
WIRE 3264 384 3216 384
WIRE 3440 384 3392 384
WIRE 3568 384 3520 384
WIRE 3744 384 3696 384
WIRE 1984 448 1984 384
WIRE 2208 448 2208 384
WIRE 2208 448 1984 448
WIRE 2304 448 2304 384
WIRE 2528 448 2528 384
WIRE 2528 448 2304 448
WIRE 2608 448 2608 384
WIRE 2832 448 2832 384
WIRE 2832 448 2608 448
WIRE 2912 448 2912 384
WIRE 3136 448 3136 384
WIRE 3136 448 2912 448
WIRE 3216 448 3216 384
WIRE 3440 448 3440 384
WIRE 3440 448 3216 448
WIRE 3520 448 3520 384
WIRE 3744 448 3744 384
WIRE 3744 448 3520 448
FLAG 1664 -48 V+
FLAG 1520 352 0
FLAG 2080 304 V+
FLAG 2432 304 0
FLAG 3008 304 V+
FLAG 2224 -176 P0
FLAG 2560 -176 P1
FLAG 2848 -176 P2
FLAG 3152 -176 P3
FLAG 3104 -16 0
FLAG 2800 -16 0
FLAG 2512 -16 0
FLAG 2176 -16 0
FLAG 2512 16 V+
FLAG 2800 16 V+
FLAG 2176 16 V+
FLAG 3104 16 V+
FLAG 3456 -176 P4
FLAG 3408 -16 0
FLAG 3408 16 V+
FLAG 3760 -176 P5
FLAG 3712 16 V+
FLAG 1536 -48 0
FLAG 1520 128 0
FLAG 2112 304 0
FLAG 1808 272 V+
FLAG 1888 272 0
FLAG 1808 48 V+
FLAG 1888 48 0
FLAG 2400 304 V+
FLAG 2704 304 V+
FLAG 2736 304 0
FLAG 3040 304 0
FLAG 3312 304 V+
FLAG 3344 304 0
FLAG 3616 304 V+
FLAG 3648 304 0
FLAG 3712 -16 0
SYMBOL voltage 1648 -48 R90
WINDOW 123 0 0 Left 0
WINDOW 39 0 0 Left 0
WINDOW 0 49 -38 VRight 2
WINDOW 3 -18 12 VRight 2
SYMATTR InstName Power_Supply
SYMATTR Value 5
SYMBOL Misc\\signal 1648 352 R90
WINDOW 3 24 104 Invisible 2
WINDOW 123 0 0 Left 0
WINDOW 39 0 0 Left 0
WINDOW 0 51 -7 VRight 2
SYMATTR Value PULSE(0 1m 3m 1u 1u 50u 100u 32)
SYMATTR InstName Channel_2
SYMBOL d-flip-flop 2096 368 R0
WINDOW 0 3 76 Bottom 2
SYMATTR InstName X1
SYMBOL d-flip-flop 2416 368 R0
WINDOW 0 5 76 Bottom 2
SYMATTR InstName X2
SYMBOL d-flip-flop 2720 368 R0
WINDOW 0 8 76 Bottom 2
SYMATTR InstName X3
SYMBOL d-flip-flop 3024 368 R0
WINDOW 0 4 76 Bottom 2
SYMATTR InstName X4
SYMBOL d-flip-flop 2240 0 R270
WINDOW 0 4 82 Bottom 2
SYMATTR InstName X5
SYMBOL d-flip-flop 2576 0 R270
WINDOW 0 4 81 Bottom 2
SYMATTR InstName X6
SYMBOL d-flip-flop 2864 0 R270
WINDOW 0 2 83 Bottom 2
SYMATTR InstName X7
SYMBOL d-flip-flop 3328 368 R0
WINDOW 0 -2 78 Bottom 2
SYMATTR InstName X8
SYMBOL d-flip-flop 3168 0 R270
WINDOW 0 2 79 Bottom 2
SYMATTR InstName X9
SYMBOL Misc\\signal 1648 128 R90
WINDOW 3 24 104 Invisible 2
WINDOW 123 0 0 Left 0
WINDOW 39 0 0 Left 0
WINDOW 0 49 -8 VRight 2
SYMATTR Value PULSE(0 1m 10m 1u 1u 50u 100u 1)
SYMATTR InstName Channel_1
SYMBOL d-flip-flop 3632 368 R0
WINDOW 0 4 75 Bottom 2
SYMATTR InstName X10
SYMBOL d-flip-flop 3472 0 R270
WINDOW 0 6 79 Bottom 2
SYMATTR InstName X11
SYMBOL d-flip-flop 3776 0 R270
WINDOW 0 6 81 Bottom 2
SYMATTR InstName X13
SYMBOL voltage-amplifier 1840 352 R0
SYMATTR InstName Chan2_Amplifier
SYMBOL voltage-amplifier 1840 128 R0
SYMATTR InstName Chan1_Amplifier
TEXT 1512 -120 Left 2 !.tran 0 20m 0 1m
