Version 4
SHEET 1 10304 1668
WIRE 624 -80 624 -112
WIRE 624 16 624 0
WIRE 1152 32 1152 -80
WIRE 1488 32 1488 -80
WIRE 1776 32 1776 -80
WIRE 2080 32 2080 -80
WIRE 2384 32 2384 -80
WIRE 2688 32 2688 -80
WIRE 624 160 624 128
WIRE 1152 224 1152 160
WIRE 1488 224 1488 160
WIRE 1776 224 1776 160
WIRE 2080 224 2080 160
WIRE 2384 224 2384 160
WIRE 2688 224 2688 160
WIRE 624 288 624 240
WIRE 960 416 864 416
WIRE 1184 416 1184 160
WIRE 1184 416 1088 416
WIRE 1280 416 1184 416
WIRE 1520 416 1520 160
WIRE 1520 416 1408 416
WIRE 1584 416 1520 416
WIRE 1808 416 1808 160
WIRE 1808 416 1712 416
WIRE 1888 416 1808 416
WIRE 2112 416 2112 160
WIRE 2112 416 2016 416
WIRE 2192 416 2112 416
WIRE 2416 416 2416 160
WIRE 2416 416 2320 416
WIRE 2496 416 2416 416
WIRE 2720 416 2720 160
WIRE 2720 416 2624 416
WIRE 2800 416 2720 416
WIRE 624 432 624 400
WIRE 960 448 912 448
WIRE 1136 448 1088 448
WIRE 1280 448 1232 448
WIRE 1456 448 1408 448
WIRE 1584 448 1536 448
WIRE 1760 448 1712 448
WIRE 1888 448 1840 448
WIRE 2064 448 2016 448
WIRE 2192 448 2144 448
WIRE 2368 448 2320 448
WIRE 2496 448 2448 448
WIRE 2672 448 2624 448
WIRE 2800 448 2752 448
WIRE 2976 448 2928 448
WIRE 912 512 912 448
WIRE 1136 512 1136 448
WIRE 1136 512 912 512
WIRE 1232 512 1232 448
WIRE 1456 512 1456 448
WIRE 1456 512 1232 512
WIRE 1536 512 1536 448
WIRE 1760 512 1760 448
WIRE 1760 512 1536 512
WIRE 1840 512 1840 448
WIRE 2064 512 2064 448
WIRE 2064 512 1840 512
WIRE 2144 512 2144 448
WIRE 2368 512 2368 448
WIRE 2368 512 2144 512
WIRE 2448 512 2448 448
WIRE 2672 512 2672 448
WIRE 2672 512 2448 512
WIRE 2752 512 2752 448
WIRE 2976 512 2976 448
WIRE 2976 512 2752 512
WIRE 624 544 624 512
FLAG 624 16 0
FLAG 624 -112 V+
FLAG 624 288 0
FLAG 624 544 0
FLAG 624 400 Chan2
FLAG 1024 384 V+
FLAG 1024 480 0
FLAG 1344 384 V+
FLAG 1344 480 0
FLAG 1648 384 V+
FLAG 1648 480 0
FLAG 1952 384 V+
FLAG 1952 480 0
FLAG 864 416 Chan2
FLAG 1152 224 Chan1
FLAG 1152 -80 P0
FLAG 1488 224 Chan1
FLAG 1488 -80 P1
FLAG 1776 224 Chan1
FLAG 1776 -80 P2
FLAG 2256 384 V+
FLAG 2256 480 0
FLAG 2080 224 Chan1
FLAG 2080 -80 P3
FLAG 2144 96 0
FLAG 1840 96 0
FLAG 1552 96 0
FLAG 1216 96 0
FLAG 1456 96 V+
FLAG 1744 96 V+
FLAG 1120 96 V+
FLAG 2048 96 V+
FLAG 624 128 Chan1
FLAG 2560 384 V+
FLAG 2560 480 0
FLAG 2384 224 Chan1
FLAG 2384 -80 P4
FLAG 2448 96 0
FLAG 2352 96 V+
FLAG 2864 384 V+
FLAG 2864 480 0
FLAG 2688 224 Chan1
FLAG 2688 -80 P5
FLAG 2752 96 0
FLAG 2656 96 V+
SYMBOL voltage 624 -96 R0
WINDOW 123 0 0 Left 0
WINDOW 39 0 0 Left 0
SYMATTR InstName V1
SYMATTR Value 5
SYMBOL Misc\\signal 624 416 R0
WINDOW 3 24 104 Invisible 2
WINDOW 123 0 0 Left 0
WINDOW 39 0 0 Left 0
SYMATTR Value PULSE(0 5 3m 1u 1u 50u 100u 4)
SYMATTR InstName V4
SYMBOL d-flip-flop 1024 432 R0
WINDOW 0 42 -60 Bottom 2
SYMATTR InstName X1
SYMBOL d-flip-flop 1344 432 R0
WINDOW 0 42 -60 Bottom 2
SYMATTR InstName X2
SYMBOL d-flip-flop 1648 432 R0
WINDOW 0 42 -60 Bottom 2
SYMATTR InstName X3
SYMBOL d-flip-flop 1952 432 R0
WINDOW 0 42 -60 Bottom 2
SYMATTR InstName X4
SYMBOL d-flip-flop 1168 96 R270
WINDOW 0 42 -60 Bottom 2
SYMATTR InstName X5
SYMBOL d-flip-flop 1504 96 R270
WINDOW 0 42 -60 Bottom 2
SYMATTR InstName X6
SYMBOL d-flip-flop 1792 96 R270
WINDOW 0 42 -60 Bottom 2
SYMATTR InstName X7
SYMBOL d-flip-flop 2256 432 R0
WINDOW 0 42 -60 Bottom 2
SYMATTR InstName X8
SYMBOL d-flip-flop 2096 96 R270
WINDOW 0 42 -60 Bottom 2
SYMATTR InstName X9
SYMBOL Misc\\signal 624 144 R0
WINDOW 3 24 104 Invisible 2
WINDOW 123 0 0 Left 0
WINDOW 39 0 0 Left 0
SYMATTR Value PULSE(0 5 10m 1u 1u 50u 100u 1)
SYMATTR InstName V3
SYMBOL d-flip-flop 2560 432 R0
WINDOW 0 42 -60 Bottom 2
SYMATTR InstName X10
SYMBOL d-flip-flop 2400 96 R270
WINDOW 0 42 -60 Bottom 2
SYMATTR InstName X11
SYMBOL d-flip-flop 2864 432 R0
WINDOW 0 42 -60 Bottom 2
SYMATTR InstName X12
SYMBOL d-flip-flop 2704 96 R270
WINDOW 0 42 -60 Bottom 2
SYMATTR InstName X13
TEXT 552 -208 Left 2 !.tran 0 20m 0 1m
