Version 4
SHEET 1 10304 2148
WIRE 1040 -176 960 -176
WIRE 1120 -176 1040 -176
WIRE 960 -144 960 -176
WIRE 1120 -144 1120 -176
WIRE 1120 0 1120 -64
WIRE 1184 0 1120 0
WIRE 1360 0 1248 0
WIRE 1568 0 1424 0
WIRE 1120 32 1120 0
WIRE 960 80 960 -64
WIRE 1056 80 960 80
WIRE 960 160 960 80
WIRE 768 208 688 208
WIRE 864 208 832 208
WIRE 896 208 864 208
WIRE 960 288 960 256
WIRE 752 320 688 320
WIRE 864 384 864 208
WIRE 928 384 864 384
WIRE 1120 384 1120 128
WIRE 1120 384 1008 384
WIRE 1280 384 1120 384
WIRE 1120 432 1120 384
WIRE 1280 432 1280 384
WIRE 1120 528 1120 512
WIRE 1280 528 1280 496
FLAG 1280 528 0
FLAG 1120 528 0
FLAG 960 288 0
FLAG 1040 -176 V+
IOPIN 1040 -176 In
FLAG 1360 16 0
FLAG 688 208 Vin
IOPIN 688 208 In
FLAG 1568 0 Vout
IOPIN 1568 0 Out
FLAG 688 320 Gnd
IOPIN 688 320 In
FLAG 752 320 0
SYMBOL npn 896 160 R0
SYMATTR InstName Q2
SYMATTR Value 2N3904
SYMBOL npn 1056 32 R0
SYMATTR InstName Q3
SYMATTR Value 2N3904
SYMBOL cap 832 192 R90
WINDOW 0 0 32 VBottom 2
WINDOW 3 32 32 VTop 2
SYMATTR InstName C4
SYMATTR Value 10µ
SYMBOL cap 1248 -16 R90
WINDOW 0 0 32 VBottom 2
WINDOW 3 32 32 VTop 2
SYMATTR InstName C5
SYMATTR Value 10µ
SYMBOL res 1104 -160 R0
SYMATTR InstName R3
SYMATTR Value 4.7k
SYMBOL res 944 -160 R0
SYMATTR InstName R6
SYMATTR Value 4.7k
SYMBOL res 1024 368 R90
WINDOW 0 0 56 VBottom 2
WINDOW 3 32 56 VTop 2
SYMATTR InstName R7
SYMATTR Value 100k
SYMBOL res 1104 416 R0
SYMATTR InstName R8
SYMATTR Value 4.7k
SYMBOL cap 1296 496 R180
WINDOW 0 24 56 Left 2
WINDOW 3 24 8 Left 2
SYMATTR InstName C6
SYMATTR Value 10µ
SYMBOL Digital\\buf1 1360 -64 R0
WINDOW 3 8 60 Invisible 2
SYMATTR Value Ref=0.8 Vhigh=5
SYMATTR InstName A1
